! Open straight wire
! This model uses the Circuit Builder to set up an open stranded 3D coil
! Transient Case
! Author: Jonathan Velasco
! Original date: October 2021
! jonathan.velasco@csc.fi
!------------------------------------------------------

Header
  CHECK KEYWORDS Warn
  Mesh DB "." "wire"
  Results Directory "res"
End

!---------------------------------------------------------
!Parameters
!---------------------------------------------------------
$ freq = 1e5
$ omega = 2*pi*freq
$ phase = 0
$ stepsPerPeriod = 10
$ periods = 1
$ nsteps = periods*stepsPerPeriod
$ stepsize=(periods/freq)/nsteps

!---------------------------------------------------------
!Include Directories (Parameters and Circuit Sources)
!Toggle between current and voltage sources by (un)commenting
!---------------------------------------------------------
Include "open_wire_current.definition"

!---------------------------------------------------------
!SIMULATION CONFIGURATION 
!---------------------------------------------------------

Simulation
  Max Output Level = 7
  Coordinate System = "Cartesian"
  Simulation Type = "Transient"
  !-----------Transient Simulation Parameters ------------
  TimeStepping Method = BDF
  BDF Order = 1
  Timestep Sizes(1) = Real $stepsize
  TimeStep Intervals(1) = $nsteps
  !-------------------------------
  Output Intervals(1) = 1
  Steady State Max Iterations = 1
  Use Mesh Names = True
End
!---------------------------------------------------------

Constants
  Permittivity of Vacuum = 8.8542e-12
  Permeability of Vacuum = 1.256e-6
End

Body 1  !---- Air
   Name = Air
   Equation = 1
   Material = 2
   Initial Condition = 1
End
Body 2  !---- Wire
   Name = Wire
   Equation = 2
   Material = 1
   Initial Condition = 1
   Body Force = 1
   Alpha reference (3) = Real 1 0 0
   Beta reference (3) = Real 0 1 0
End

Initial Condition 1
   A {e} = Real 0
   A  = Real 0
   W = Real 1
End

!---------------------------------------------------------
! Material Properties 
!---------------------------------------------------------

Material 1
  Name = "Copper"
  Electric Conductivity = 58e6
  Relative Permittivity = 1.0
  Relative Permeability = 1.0
End

Material 2
  Name = "Air"
  Electric Conductivity = 0.0
  Relative Permittivity = 1.0
  Relative Permeability = 1.0
End

!---------------------------------------------------------
! Boundary conditions
!---------------------------------------------------------

Boundary Condition 1  
    Name = "Infinity_Magnetic_Insulation"
    A {e} = Real 0
End
Boundary Condition 2  !---- ground
   Name = "Terminal_2"
   Coil End = Logical True
   W = Real 0
   A {e} = Real 0
End
Boundary Condition 3  !---- active terminal (source)
   Name = "Terminal_1"
   Coil Start = Logical True
   W = Real 1
   A {e} = Real 0
End

Boundary Condition 4  !---- Alpha0
   Name = "Alpha0"
   Target Boundaries = 82
   Body 2: Alpha = Real 0
End

Boundary Condition 5  !---- Beta0
   Name = "Beta0"
   Target Boundaries = 82
   Body 2: Beta = Real 0
End

!---------------------------------------------------------
! Solver Configuration
!---------------------------------------------------------

Equation 1
   Active Solvers(8) = 3 4 5 6 7 8 9 10
End
Equation 2
   Active Solvers(10) = 1 2 3 4 5 6 7 8 9 10                 
End

Solver 1  !---- DirectionSolver, DirectionSolver
   Exec Solver = Before all
   Procedure = "DirectionSolver" "DirectionSolver"
   Linear System Solver = Iterative
   Linear System Iterative Method = BiCGStab
   Linear System Max Iterations = 5000
   Linear System Convergence Tolerance = 1.0e-10
   Linear System Abort Not Converged = True
   Linear System Residual Output = 1000
   Equation = Direction Alpha
   Variable =  Alpha
End
Solver 2  !---- DirectionSolver, DirectionSolver
   Exec Solver = Before all
   Procedure = "DirectionSolver" "DirectionSolver"
   Linear System Solver = Iterative
   Linear System Iterative Method = BiCGStab
   Linear System Max Iterations = 5000
   Linear System Convergence Tolerance = 1.0e-10
   Linear System Abort Not Converged = True
   Linear System Residual Output = 1000
   Equation = Direction Beta
   Variable =  Beta
End

Solver 3  !---- CoordinateTransform, RotMSolver
   Exec Solver = Before All
   Equation = Transformation matrix
   Procedure = "CoordinateTransform" "RotMSolver"
   Variable = -nooutput Dummy
   Optimize Bandwidth = False
   Polar Decomposition Determinant Tolerance = Real 1.0e-9
   Polar Decomposition Max Iterations = Integer 100
   Exported Variable 1 = -nooutput RotM E[RotM E:9]
   Exported Variable 2 = -nooutput Alpha Vector E[Alpha Vector E:3]
   Exported Variable 3 = -nooutput Beta Vector E[Beta Vector E:3]
   Exported Variable 4 = -nooutput Gamma Vector E[Gamma Vector E:3]
   Discontinuous Galerkin = True
End

Solver 4  !---- WPotentialSolver, Wsolve
   Exec Solver = Before All
   Procedure = "WPotentialSolver" "Wsolve"
   Equation = "Wire direction"
   Variable = W
   Linear System Solver = Iterative
   Linear System Iterative Method = CG
   Linear System Max Iterations = 5000
   Linear System Convergence Tolerance = 1.0e-10
   Linear System Abort Not Converged = True
   Linear System Residual Output = 1000
End

Solver 5  !---- CircuitsAndDynamics, CircuitsAndDynamics
   Exec Solver = Always
   Equation = Circuits
   Variable = X
   No Matrix = Logical True
   Procedure = "CircuitsAndDynamics" "CircuitsAndDynamics"
End

Solver 6  !---- MagnetoDynamics, WhitneyAVSolver
   Exec Solver = Always
   Equation = "MGDynamics"
   Variable = "A"
   Procedure = "MagnetoDynamics" "WhitneyAVSolver"
   NonLinear System Relaxation Factor=1
   Export Lagrange Multiplier = Logical True
   Linear System Solver = Iterative
   Linear System Iterative Method = BicgstabL
   Linear System preconditioning = none
   Linear System Convergence Tolerance = 1.e-8
   Linear System Max Iterations = 3000
   Linear System Residual Output = 1000
   Linear System ILUT Tolerance=1e-8
   BicgstabL polynomial degree = 6
   Steady State Convergence Tolerance = 1e-08
End

Solver 7  !---- MagnetoDynamics, MagnetoDynamicsCalcFields
   Exec Solver = Always
   Equation = "MGDynamicsCalc"
   Procedure = "MagnetoDynamics" "MagnetoDynamicsCalcFields"
   Linear System Symmetric = True
   Potential Variable = String "A"
   Calculate Current Density = Logical True
   Steady State Convergence Tolerance = 0
   Linear System Solver = "Iterative"
   Linear System Preconditioning = None
   Linear System Residual Output = 1000
   Linear System Max Iterations = 5000
   Linear System Iterative Method = CG
   Steady State Convergence Tolerance = 1e-6
   Linear System Convergence Tolerance = 1.0e-8
End

Solver 8  !---- CircuitsAndDynamics, CircuitsOutput
   Exec Solver = Always
   Equation = Circuits Output
   Procedure = "CircuitsAndDynamics" "CircuitsOutput"
End

Solver 9  !---- ResultOutputSolve, ResultOutputSolver
   Exec Solver = After timestep
   Equation = "ResultOutput"
   Procedure = "ResultOutputSolve" "ResultOutputSolver"
   Output File Name = open_wire
   Vtu format = Logical True
   Output Format = Gmsh
   Save Geometry Ids = Logical True
End

Solver 10  !---- SaveData, SaveScalars
   Exec Solver = After timestep
   Equation = "sv"
   Procedure = "SaveData" "SaveScalars"
   Filename = open_wire.dat
End




