! Simple case for testing the stranded coil in transient 3D simulation.
! Author: Eelis Takala, Trafotek Oy
! Original date: May 2017
! eelis.takala@gmail.com
Check Keywords "Warn"

Header 1
   Mesh DB "." "6480"
End

# Mesh and Circuit file includes
INCLUDE 6480-circuits.definition
INCLUDE 6480/mesh.names
!---------------------------------------------------------
!Parameters
!---------------------------------------------------------

$ freq = 50
$ omega = 2*pi*freq
$ phase = 0
$ stepsPerPeriod = 64
$ periods = 1
$ nsteps = periods*stepsPerPeriod
$ stepsize=(periods/freq)/nsteps

!---------------------------------------------------------
!SIMULATION CONFIGURATION 
!---------------------------------------------------------

Simulation
  Max Output Level = 5
  Coordinate System = "Cartesian"
  Simulation Type = "Transient"
  !-----------Transient Simulation Parameters ------------
  TimeStepping Method = BDF
  BDF Order = 1
  Timestep Sizes(1) = $stepsize
  TimeStep Intervals(1) = $nsteps
  !-------------------------------
  Output Intervals(1) = 1
  Steady State Max Iterations = 1
  Use Mesh Names = True
End

Constants 1
   Permittivity of Vacuum = 8.8542e-12
End
Initial Condition 1
   A {e} = Real 0
   A  = Real 0
End

!---------------------------------------------------------

Solver 1
  Equation = "CoilSolver"

  Procedure = "CoilSolver" "CoilSolver"

  Exec Solver = Before All

  Linear System Solver = "Iterative"
  Linear System Preconditioning = ilu1
  Linear System Max Iterations = 1000
  Linear System Convergence Tolerance = 1e-10
  Linear System Iterative Method = BiCGStabL
  Linear System Residual Output = 20
  Steady State Convergence Tolerance = 1e-06

  Calculate Elemental Fields = True
  Normalize Coil Current = True
End



Solver 2  !---- CircuitsAndDynamics, CircuitsAndDynamics
   Exec Solver = Always
   Equation = Circuits
!   Variable = X
!   No Matrix = Logical True
   Procedure = "CircuitsAndDynamics" "CircuitsAndDynamics"

!  W Vector Variable Name = String "CoilCurrent e"
!  or
   Use Elemental CoilCurrent = True
End

Solver 3  !---- MagnetoDynamics, WhitneyAVSolver
   Exec Solver = Always
   Equation = "MGDynamics"
   Variable = "A"
   Procedure = "MagnetoDynamics" "WhitneyAVSolver"
   NonLinear System Relaxation Factor=1
   Export Lagrange Multiplier = Logical True
   Linear System Solver = Iterative
   Linear System Iterative Method = BicgstabL
   Linear System preconditioning = none
   Linear System Convergence Tolerance = 1.e-8
   Linear System Max Iterations = 3000
   Linear System Residual Output = 1000
   Linear System ILUT Tolerance=1e-8
   BicgstabL polynomial degree = 6
   Steady State Convergence Tolerance = 1e-08
End
Solver 4  !---- MagnetoDynamics, MagnetoDynamicsCalcFields
   Exec Solver = Always
   Equation = "MGDynamicsCalc"
   Procedure = "MagnetoDynamics" "MagnetoDynamicsCalcFields"
   Linear System Symmetric = True
   Potential Variable = String "A"
   
   Calculate Elemental Fields = True
   Calculate Nodal Fields = False

   Calculate Current Density = Logical True
!   Loss Estimation = Logical True
   Steady State Convergence Tolerance = 0
   Linear System Solver = "Iterative"
   Linear System Preconditioning = None
   Linear System Residual Output = 1000
   Linear System Max Iterations = 5000
   Linear System Iterative Method = CG
   Steady State Convergence Tolerance = 1e-6
   Linear System Convergence Tolerance = 1.0e-8
End
Solver 5  !---- CircuitsAndDynamics, CircuitsOutput
   Exec Solver = Always
   Equation = Circuits Output
   Procedure = "CircuitsAndDynamics" "CircuitsOutput"
End
Solver 6  !---- ResultOutputSolve, ResultOutputSolver
   Equation = "ResultOutput"
   Procedure = "ResultOutputSolve" "ResultOutputSolver"
   Output File Name = test
   Vtu format = Logical True
   Output format = Gmsh
   Save Geometry Ids = Logical True
   Output Directory = res
End
Solver 7  !---- SaveData, SaveScalars
   Exec Solver = After timestep
   Equation = "sv"
   Procedure = "SaveData" "SaveScalars"
   Filename = res/6480.dat
End
Equation 1
   Active Solvers(5) = 3 4 5 6 7
End
Equation 2
   Active Solvers(7) = 1 2 3 4 5 6 7
End
Material 1  !---- iron: generic
   Name = iron
   Electric Conductivity = 0
   Relative Permeability = 2000
End
Material 2  !---- air: generic
   Name = air
   Electric Conductivity = 0
   Relative Permeability = 1
End
Material 3  !---- aluminium: generic
   Name = aluminium
   Relative Permeability = 1
   Electric Conductivity = 36e6
End
Body 1  !---- core
   Name = core
   Target Bodies(1) = $ core
   Equation = 1
   Material = 1
   Initial Condition = 1
End
Body 2  !---- air
   Name = air
   Target Bodies(1) = $ air
   Equation = 1
   Material = 2
   Initial Condition = 1
End
Body 3  !---- A1
   Name = A1
   Target Bodies(1) = $ A1
   Equation = 2
   Material = 3
   Initial Condition = 1
   Body Force = 1
   Alpha reference (3) = Real 1 0 0
   Beta reference (3) = Real 0 1 0
End
!Component 1  !---- A1
!   Name = String A1
!   Master Bodies = Integer 3
!   Coil Type = String stranded
!   Number of Turns = Real 8
!!   Electrode Area = Real 0.01
!   Electrode Boundaries(2) = Integer 4 5
!   Circuit Equation Voltage Factor = Real 0.5 !symmetry (half of the problem is solved)
!End
!Body Force 1  !---- Circuit
!   Name = "Circuit"
!   Vs_Source = Variable "time" 
!  	 Real MATC "Vs*sin(omega*tx)"
!End
Boundary Condition 1  !---- BCn Flux Parallel
   Name = BCn Flux Parallel
   Target Boundaries(2) = $ coreface_xy xy0
   A {e} = Real 0
End
Boundary Condition 2  !---- Alpha0
   Name = Alpha0
   Target Boundaries = $ A1_alpha0
   Body 3: Alpha = Real 0
End
Boundary Condition 3  !---- Alpha1
   Name = Alpha1
   Target Boundaries = $ A1_alpha1
   Body 3: Alpha = Real 1
End
Boundary Condition 4  !---- ground
   Name = ground
   Target Boundaries = $ A1_gamma1
   W = Real 0
   A {e} = Real 0
End
Boundary Condition 5  !---- current in foil winding
   Name = current in foil winding
   Target Boundaries = $ A1_gamma0
   W = Real 1
   A {e} = Real 0
End
Boundary Condition 6  !---- Beta1
   Name = Beta1
   Target Boundaries = $ A1_beta1
   Body 3: Beta = Real 1
End
Boundary Condition 7  !---- Beta0
   Name = Beta0
   Target Boundaries = $ A1_beta0
   Body 3: Beta = Real 0
End

!Solver 6 :: Reference Norm = Real 2.30686587E-03
!Solver 6 :: Reference Norm Tolerance = Real 1E-03
!Solver 7 :: Reference Norm = Real 5.08844468E+04 
!Solver 7 :: Reference Norm Tolerance = Real 1E-03
